Version 4.1
SHEET 1 880 680
WIRE 208 32 144 32
WIRE 336 32 288 32
WIRE -64 160 -80 160
WIRE 16 160 -64 160
WIRE 144 160 144 32
WIRE 144 160 96 160
WIRE 224 160 144 160
WIRE 336 176 336 32
WIRE 336 176 272 176
WIRE 416 176 336 176
WIRE 224 192 160 192
WIRE -80 240 -80 160
WIRE -80 384 -80 320
WIRE 64 384 -80 384
WIRE 160 384 160 192
WIRE 160 384 64 384
WIRE 64 416 64 384
FLAG 64 416 0
FLAG -64 160 INPUT
FLAG 416 176 OUTPUT
SYMBOL MyOTA 256 176 M180
WINDOW 39 79 -80 Center 2
WINDOW 40 48 -48 Center 2
WINDOW 0 3 32 Left 2
SYMATTR InstName U1
SYMBOL voltage -80 224 R0
WINDOW 123 0 0 Left 0
WINDOW 39 0 0 Left 0
SYMATTR InstName Vs
SYMATTR Value SINE(0 1 1k)
SYMBOL res 112 144 R90
WINDOW 0 0 56 VBottom 2
WINDOW 3 32 56 VTop 2
SYMATTR InstName R1
SYMATTR Value 10k
SYMBOL res 304 16 R90
WINDOW 0 0 56 VBottom 2
WINDOW 3 32 56 VTop 2
SYMATTR InstName R2
SYMATTR Value 50k
TEXT 232 328 Left 2 !.tran 5m
TEXT -144 -128 Left 3 ;Operational transconductance amplifier
