Version 4.1
SHEET 1 880 680
WIRE -16 112 -48 112
WIRE 320 112 -16 112
WIRE 528 128 368 128
WIRE 624 128 528 128
WIRE 320 144 128 144
WIRE 128 240 128 144
WIRE -48 256 -48 112
WIRE 624 288 624 128
WIRE -48 416 -48 336
WIRE 304 416 -48 416
WIRE 624 416 624 368
WIRE 624 416 304 416
WIRE 304 448 304 416
FLAG 304 448 0
FLAG 128 240 0
FLAG -16 112 INPUT
FLAG 528 128 OUTPUT
SYMBOL voltage -48 240 R0
WINDOW 123 24 130 Left 2
WINDOW 39 0 0 Left 0
SYMATTR InstName V1
SYMATTR Value ""
SYMATTR Value2 AC 1
SYMBOL MyOTA 352 128 R0
SYMATTR InstName U1
SYMBOL res 608 272 R0
SYMATTR InstName R1
SYMATTR Value {RL}
TEXT 16 -112 Left 2 ;Operational transconductance amplifier (Freq)
TEXT 32 -56 Left 2 ;10 December 2025
TEXT 200 296 Left 2 !.ac dec 101 1 10meg
TEXT -56 16 Left 2 !.step param RL list 1000meg 1meg 300k 100k 30k
